data_image0
_chemical_formula_structural       C2HCNZnC2HCNZnC2HCH3NC2HCH3NC2HCNZnC2HCNZnC2HCH3NC2HCH3NC2HCNZnC2HCH3NZnC2HCNZnC2HCH3NZnCHNCH4NCHNCH4NCH4NZnCHNZnCH4NZnCH4NCHNZnCHNCH4NCHNC2HCH3NC2HCNC2HCH3NC2HCH3NC2HCH3NC2HCNC2HCNC2HCNC2HCNC2HCH3NC2HCNC2HCH3NCHNCH4NCHNCH4NCH4NCH4NCHNCH4NCH4NCHNCHNCHN
_chemical_formula_sum              "C96 H120 N48 Zn12"
_cell_length_a       16.991
_cell_length_b       16.991
_cell_length_c       16.991
_cell_angle_alpha    90
_cell_angle_beta     90
_cell_angle_gamma    90

_space_group_name_H-M_alt    "P 1"
_space_group_IT_number       1

loop_
  _space_group_symop_operation_xyz
  'x, y, z'

loop_
  _atom_site_type_symbol
  _atom_site_label
  _atom_site_symmetry_multiplicity
  _atom_site_fract_x
  _atom_site_fract_y
  _atom_site_fract_z
  _atom_site_occupancy
  _atom_site_charge
  C   C1        1.0  0.37945  0.00966  0.62154  1.0000     1.0566793125678926  
  C   C2        1.0  0.37417  0.89884  0.68233  1.0000     1.0581462458504032  
  H   H1        1.0  0.39057  0.85331  0.72284  1.0000    0.97394879263950029  
  C   C3        1.0  0.40566  0.08911  0.59594  1.0000     1.0315011980615876  
  N   N1        1.0  0.41440  0.96848  0.67856  1.0000     1.3418332375805260  
  Zn  Zn1       1.0  0.50289  0.99825  0.74875  1.0000     1.1101295699376041  
  C   C4        1.0  0.00868  0.62307  0.37708  1.0000     1.0563020330519068  
  C   C5        1.0  0.89719  0.62726  0.31749  1.0000     1.0587400660784601  
  H   H2        1.0  0.85192  0.61144  0.27647  1.0000    0.97273278035629052  
  C   C6        1.0  0.08854  0.59777  0.40215  1.0000     1.0313910557099077  
  N   N2        1.0  0.96813  0.58920  0.31894  1.0000     1.3414907319902469  
  Zn  Zn2       1.0  0.00010  0.50135  0.24878  1.0000     1.1114711912450281  
  C   C7        1.0  0.62477  0.99177  0.62051  1.0000     1.0559434809992816  
  C   C8        1.0  0.63814  0.09560  0.69160  1.0000     1.0590522940573930  
  H   H3        1.0  0.62603  0.13718  0.73748  1.0000    0.97168116567566898  
  C   C9        1.0  0.59311  0.91704  0.58798  1.0000     1.0314930169549630  
  H   H4        1.0  0.55113  0.92948  0.54105  1.0000    0.94541469432828917  
  H   H5        1.0  0.56299  0.88398  0.63382  1.0000    0.93416551009551663  
  H   H6        1.0  0.64053  0.88174  0.56336  1.0000    0.93438820867716099  
  N   N3        1.0  0.59380  0.02901  0.68237  1.0000     1.3410337381075768  
  C   C10       1.0  0.99343  0.38082  0.37763  1.0000     1.0561805285890589  
  C   C11       1.0  0.10386  0.37536  0.31622  1.0000     1.0586526088279862  
  H   H7        1.0  0.14872  0.39089  0.27463  1.0000    0.97430604039314461  
  C   C12       1.0  0.91456  0.40786  0.40398  1.0000     1.0311726867371058  
  H   H8        1.0  0.92055  0.46061  0.44005  1.0000    0.94855343806384584  
  H   H9        1.0  0.87773  0.42264  0.35372  1.0000    0.93503680625434271  
  H   H10       1.0  0.88629  0.36241  0.43909  1.0000    0.93217290373589889  
  N   N4        1.0  0.03350  0.41432  0.31894  1.0000     1.3400345253378949  
  C   C13       1.0  0.37875  0.99286  0.38044  1.0000     1.0564785153337435  
  C   C14       1.0  0.37403  0.10211  0.31683  1.0000     1.0585029658835561  
  H   H11       1.0  0.39033  0.14626  0.27479  1.0000    0.97335155980330523  
  C   C15       1.0  0.40435  0.91385  0.40791  1.0000     1.0313911717471103  
  N   N5        1.0  0.41345  0.03209  0.32192  1.0000     1.3420740895674534  
  Zn  Zn3       1.0  0.50156  0.00006  0.25217  1.0000     1.1100803366115890  
  C   C16       1.0  0.99328  0.62079  0.62086  1.0000     1.0560369546764437  
  C   C17       1.0  0.10048  0.62699  0.68772  1.0000     1.0588050012691563  
  H   H12       1.0  0.14282  0.61236  0.73216  1.0000    0.97243807042858932  
  C   C18       1.0  0.91563  0.59387  0.59100  1.0000     1.0311958798004659  
  N   N6        1.0  0.03036  0.58790  0.68177  1.0000     1.3415804382537897  
  Zn  Zn4       1.0  0.99660  0.49964  0.75032  1.0000     1.1103725284591628  
  C   C19       1.0  0.62287  0.00596  0.38061  1.0000     1.0559401465389662  
  C   C20       1.0  0.63791  0.90337  0.30806  1.0000     1.0587897911558140  
  H   H13       1.0  0.62639  0.86214  0.26170  1.0000    0.97254834407269564  
  C   C21       1.0  0.58970  0.07956  0.41425  1.0000     1.0314367585164526  
  H   H14       1.0  0.54390  0.06557  0.45698  1.0000    0.94593996623666410  
  H   H15       1.0  0.56365  0.11536  0.36797  1.0000    0.93473545906402000  
  H   H16       1.0  0.63553  0.11276  0.44418  1.0000    0.93334050115027378  
  N   N7        1.0  0.59226  0.96887  0.31847  1.0000     1.3405737577849566  
  C   C22       1.0  0.00398  0.37953  0.62074  1.0000     1.0560202634113851  
  C   C23       1.0  0.89641  0.36914  0.68645  1.0000     1.0585974695403491  
  H   H17       1.0  0.85279  0.38240  0.73009  1.0000    0.97371501636518265  
  C   C24       1.0  0.08097  0.40896  0.59154  1.0000     1.0312832721658001  
  H   H18       1.0  0.07204  0.44584  0.53977  1.0000    0.94815740372707502  
  H   H19       1.0  0.10991  0.44390  0.63669  1.0000    0.93342395967827863  
  H   H20       1.0  0.11860  0.36000  0.57453  1.0000    0.93439333114754530  
  N   N8        1.0  0.96481  0.41126  0.68096  1.0000     1.3406551646475822  
  C   C25       1.0  0.61958  0.37765  0.00854  1.0000     1.0561636708421944  
  C   C26       1.0  0.68547  0.37066  0.90075  1.0000     1.0588519023815257  
  H   H21       1.0  0.72924  0.38532  0.85772  1.0000    0.97233913224880841  
  C   C27       1.0  0.59020  0.40520  0.08617  1.0000     1.0310654324118433  
  N   N9        1.0  0.67949  0.41099  0.97019  1.0000     1.3417763715535482  
  Zn  Zn5       1.0  0.74737  0.50079  0.00127  1.0000     1.1096417772956102  
  C   C28       1.0  0.37883  0.37636  0.99121  1.0000     1.0561438534197856  
  C   C29       1.0  0.36543  0.30865  0.09724  1.0000     1.0591613865216909  
  H   H22       1.0  0.37748  0.26419  0.14035  1.0000    0.97170413308690884  
  C   C30       1.0  0.41043  0.40595  0.91521  1.0000     1.0314154543051204  
  H   H23       1.0  0.46669  0.43533  0.92460  1.0000    0.94597137310043833  
  H   H24       1.0  0.42043  0.35742  0.87459  1.0000    0.93609421606735455  
  H   H25       1.0  0.36934  0.44763  0.88925  1.0000    0.93313808173526136  
  N   N10       1.0  0.40969  0.31563  0.03038  1.0000     1.3393116612086402  
  Zn  Zn6       1.0  0.49973  0.24794  0.99993  1.0000     1.1114537288532194  
  C   C31       1.0  0.37694  0.62074  0.00682  1.0000     1.0560021134171484  
  C   C32       1.0  0.31115  0.63105  0.89927  1.0000     1.0582479354748715  
  H   H26       1.0  0.26808  0.61720  0.85527  1.0000    0.97424144514073974  
  C   C33       1.0  0.40645  0.59062  0.08343  1.0000     1.0311756760918251  
  N   N11       1.0  0.31777  0.58790  0.96693  1.0000     1.3414917973585720  
  Zn  Zn7       1.0  0.24966  0.49794  0.99718  1.0000     1.1100130303635514  
  C   C34       1.0  0.61730  0.62150  0.99434  1.0000     1.0562889051331152  
  C   C35       1.0  0.62705  0.68686  0.10220  1.0000     1.0589181473211262  
  H   H27       1.0  0.61310  0.72987  0.14623  1.0000    0.97363637373571577  
  C   C36       1.0  0.58758  0.59278  0.91726  1.0000     1.0311379894592914  
  H   H28       1.0  0.53145  0.56271  0.92517  1.0000    0.94601999797217562  
  H   H29       1.0  0.57788  0.64169  0.87704  1.0000    0.93645131406702953  
  H   H30       1.0  0.62954  0.55182  0.89157  1.0000    0.93360151386556356  
  N   N12       1.0  0.58491  0.68116  0.03389  1.0000     1.3392892308419899  
  Zn  Zn8       1.0  0.49691  0.75067  0.00171  1.0000     1.1111935746588195  
  C   C37       1.0  0.68400  0.63059  0.10147  1.0000     1.0588253787791930  
  H   H31       1.0  0.72810  0.61684  0.14446  1.0000    0.97203307018273277  
  N   N13       1.0  0.67780  0.58922  0.03266  1.0000     1.3412747277891650  
  C   C38       1.0  0.62892  0.31399  0.89965  1.0000     1.0588652504022689  
  H   H32       1.0  0.61480  0.27166  0.85503  1.0000    0.97343996280319700  
  H   H33       1.0  0.53636  0.43925  0.07841  1.0000    0.94775426795446227  
  H   H34       1.0  0.57646  0.35544  0.12408  1.0000    0.93576408601872585  
  H   H35       1.0  0.63405  0.44241  0.11430  1.0000    0.93352142055532672  
  N   N14       1.0  0.58732  0.31832  0.96840  1.0000     1.3394387649703994  
  C   C39       1.0  0.30893  0.36538  0.09608  1.0000     1.0586780305059080  
  H   H36       1.0  0.26352  0.37844  0.13789  1.0000    0.97202555395983914  
  N   N15       1.0  0.31751  0.40829  0.02849  1.0000     1.3406103465703469  
  C   C40       1.0  0.36648  0.68891  0.90076  1.0000     1.0595134699228597  
  H   H37       1.0  0.37932  0.73400  0.85855  1.0000    0.97080992862378956  
  H   H38       1.0  0.45751  0.55287  0.07403  1.0000    0.94840994435493198  
  H   H39       1.0  0.42464  0.63912  0.12109  1.0000    0.93454773495984345  
  H   H40       1.0  0.36096  0.55629  0.11263  1.0000    0.93398544841103381  
  N   N16       1.0  0.40811  0.68234  0.96932  1.0000     1.3396194916654904  
  C   C41       1.0  0.89750  0.68334  0.37466  1.0000     1.0588926180330831  
  H   H41       1.0  0.85253  0.72425  0.39160  1.0000    0.97346979049112536  
  H   H42       1.0  0.08456  0.56262  0.45569  1.0000    0.94629786844570396  
  H   H43       1.0  0.12527  0.64867  0.41490  1.0000    0.93474441801278318  
  H   H44       1.0  0.11581  0.56228  0.35639  1.0000    0.93299382967870514  
  N   N17       1.0  0.96860  0.68076  0.41226  1.0000     1.3398808269365821  
  Zn  Zn9       1.0  0.00266  0.74908  0.50057  1.0000     1.1118649446903262  
  C   C42       1.0  0.89678  0.31294  0.62941  1.0000     1.0587731789837542  
  H   H45       1.0  0.85351  0.26924  0.61517  1.0000    0.97402575630262822  
  N   N18       1.0  0.96540  0.31952  0.58787  1.0000     1.3400988319053058  
  Zn  Zn10      1.0  0.99958  0.25231  0.49886  1.0000     1.1109128865811488  
  C   C43       1.0  0.31639  0.10271  0.37242  1.0000     1.0596672633387652  
  H   H46       1.0  0.27400  0.14725  0.38659  1.0000    0.97079735691128899  
  H   H47       1.0  0.41815  0.91566  0.47050  1.0000    0.94300380511100734  
  H   H48       1.0  0.35779  0.87057  0.39955  1.0000    0.93873587530405522  
  H   H49       1.0  0.45627  0.89542  0.37530  1.0000    0.93297095446817657  
  N   N19       1.0  0.31938  0.03307  0.41268  1.0000     1.3408252393173887  
  Zn  Zn11      1.0  0.24921  0.00264  0.50103  1.0000     1.1108333934002719  
  C   C44       1.0  0.10324  0.68260  0.63017  1.0000     1.0587958358848903  
  H   H50       1.0  0.14881  0.72381  0.61580  1.0000    0.97319308194012089  
  H   H51       1.0  0.92393  0.55453  0.54097  1.0000    0.94928655138109008  
  H   H52       1.0  0.88062  0.64374  0.57129  1.0000    0.93456680990226382  
  H   H53       1.0  0.88425  0.56189  0.63671  1.0000    0.93258662052861485  
  N   N20       1.0  0.03482  0.67880  0.58794  1.0000     1.3391744400373409  
  C   C45       1.0  0.69489  0.90324  0.36431  1.0000     1.0590380760913050  
  H   H54       1.0  0.74127  0.86184  0.37506  1.0000    0.97145081017254276  
  N   N21       1.0  0.68529  0.96864  0.41025  1.0000     1.3395940120498115  
  Zn  Zn12      1.0  0.75347  0.99955  0.49964  1.0000     1.1099500866035583  
  C   C46       1.0  0.10374  0.31909  0.37318  1.0000     1.0588179293067153  
  H   H55       1.0  0.14840  0.27748  0.38919  1.0000    0.97229224560585958  
  N   N22       1.0  0.03328  0.32249  0.41195  1.0000     1.3404573206205201  
  C   C47       1.0  0.31580  0.90042  0.62754  1.0000     1.0597574662470082  
  H   H56       1.0  0.27259  0.85686  0.61282  1.0000    0.97038205167072100  
  H   H57       1.0  0.41496  0.08991  0.53252  1.0000    0.94222825342430361  
  H   H58       1.0  0.36131  0.13336  0.60959  1.0000    0.93891200817699527  
  H   H59       1.0  0.46022  0.10447  0.62571  1.0000    0.93306139086565587  
  N   N23       1.0  0.31917  0.97104  0.58905  1.0000     1.3402815885771304  
  C   C48       1.0  0.69474  0.09617  0.63497  1.0000     1.0589004919521170  
  H   H60       1.0  0.74016  0.13842  0.62338  1.0000    0.97253629888526083  
  N   N24       1.0  0.68622  0.02998  0.58997  1.0000     1.3398852238098136  
  C   C49       1.0  0.87658  0.50901  0.12264  1.0000     1.0561828217760785  
  C   C50       1.0  0.87043  0.39920  0.18517  1.0000     1.0591868677336413  
  H   H61       1.0  0.88608  0.35437  0.22672  1.0000    0.97229737939938676  
  C   C51       1.0  0.90400  0.58750  0.09554  1.0000     1.0312820916116454  
  H   H62       1.0  0.95697  0.58113  0.05988  1.0000    0.94720078584667677  
  H   H63       1.0  0.91838  0.62485  0.14555  1.0000    0.93578199753451685  
  H   H64       1.0  0.85879  0.61545  0.05986  1.0000    0.93283563323021701  
  N   N25       1.0  0.91080  0.46872  0.18079  1.0000     1.3404121562762292  
  C   C52       1.0  0.50940  0.11942  0.87874  1.0000     1.0564478547556850  
  C   C53       1.0  0.40242  0.12747  0.81168  1.0000     1.0589451934206591  
  H   H65       1.0  0.35969  0.11308  0.76758  1.0000    0.97142169906021136  
  C   C54       1.0  0.58687  0.09187  0.90860  1.0000     1.0315191316395451  
  N   N26       1.0  0.47150  0.08666  0.81824  1.0000     1.3413649631226681  
  C   C55       1.0  0.12025  0.49151  0.11935  1.0000     1.0564659031761434  
  C   C56       1.0  0.12973  0.60087  0.18229  1.0000     1.0595215199327759  
  H   H66       1.0  0.11597  0.64549  0.22474  1.0000    0.97110840416905198  
  C   C57       1.0  0.09154  0.41307  0.09335  1.0000     1.0314093722101971  
  H   H67       1.0  0.02981  0.41669  0.07633  1.0000    0.94381261276408901  
  H   H68       1.0  0.09605  0.37032  0.14092  1.0000    0.93809827551016312  
  H   H69       1.0  0.12610  0.39278  0.04342  1.0000    0.93337831814128491  
  N   N27       1.0  0.08799  0.53216  0.17839  1.0000     1.3391930188199159  
  C   C58       1.0  0.49177  0.87768  0.87794  1.0000     1.0564423470602349  
  C   C59       1.0  0.60038  0.86677  0.81392  1.0000     1.0593933524020087  
  H   H70       1.0  0.64438  0.87938  0.77044  1.0000    0.97225989061209783  
  C   C60       1.0  0.41383  0.90723  0.90447  1.0000     1.0315908700660730  
  H   H71       1.0  0.41907  0.96780  0.92490  1.0000    0.94231433675054899  
  H   H72       1.0  0.37167  0.90657  0.85620  1.0000    0.93764887045010914  
  H   H73       1.0  0.39197  0.87072  0.95229  1.0000    0.93216968938001055  
  N   N28       1.0  0.53160  0.90844  0.81757  1.0000     1.3406230523731157  
  C   C61       1.0  0.87668  0.49356  0.87983  1.0000     1.0562375834465982  
  C   C62       1.0  0.86324  0.59866  0.81069  1.0000     1.0590031122434309  
  H   H74       1.0  0.87514  0.64117  0.76559  1.0000    0.97246877592780856  
  C   C63       1.0  0.90865  0.41817  0.91051  1.0000     1.0314224434179688  
  H   H75       1.0  0.96148  0.42923  0.94522  1.0000    0.94536385737567119  
  H   H76       1.0  0.92473  0.37937  0.86214  1.0000    0.93511879385410668  
  H   H77       1.0  0.86524  0.38943  0.94777  1.0000    0.93413560892743119  
  N   N29       1.0  0.90733  0.53174  0.81838  1.0000     1.3394100829828783  
  C   C64       1.0  0.49326  0.12035  0.12275  1.0000     1.0562626005260785  
  C   C65       1.0  0.60073  0.13112  0.18869  1.0000     1.0591736547350536  
  H   H78       1.0  0.64399  0.11837  0.23285  1.0000    0.97293263802269192  
  C   C66       1.0  0.41613  0.09035  0.09443  1.0000     1.0316400549685838  
  N   N30       1.0  0.53209  0.08937  0.18362  1.0000     1.3407904568958804  
  C   C67       1.0  0.11939  0.50575  0.87782  1.0000     1.0559442145762759  
  C   C68       1.0  0.13004  0.40039  0.80864  1.0000     1.0588511325109542  
  H   H79       1.0  0.11634  0.35780  0.76415  1.0000    0.97220315828649451  
  C   C69       1.0  0.08921  0.58134  0.90979  1.0000     1.0312840185663106  
  N   N31       1.0  0.08647  0.46749  0.81765  1.0000     1.3409563317672279  
  C   C70       1.0  0.50571  0.87953  0.12177  1.0000     1.0562512570169831  
  C   C71       1.0  0.40120  0.86925  0.19230  1.0000     1.0589734317050890  
  H   H80       1.0  0.35973  0.88265  0.23789  1.0000    0.97130906321203048  
  C   C72       1.0  0.58144  0.90876  0.08920  1.0000     1.0314124169057493  
  N   N32       1.0  0.46912  0.91154  0.18344  1.0000     1.3404976842604064  
  C   C73       1.0  0.12292  0.87851  0.50874  1.0000     1.0565670379391576  
  C   C74       1.0  0.18234  0.87723  0.39708  1.0000     1.0582176626517565  
  H   H81       1.0  0.22259  0.89493  0.35182  1.0000    0.97425512514343171  
  C   C75       1.0  0.09739  0.90258  0.58885  1.0000     1.0312828706139849  
  N   N33       1.0  0.17981  0.91459  0.46835  1.0000     1.3416476698246693  
  C   C76       1.0  0.88250  0.87779  0.49320  1.0000     1.0562062922500466  
  C   C77       1.0  0.87316  0.81388  0.60200  1.0000     1.0592112728175296  
  H   H82       1.0  0.88721  0.77134  0.64645  1.0000    0.97247125646654331  
  C   C78       1.0  0.91168  0.90512  0.41540  1.0000     1.0313618138474570  
  H   H83       1.0  0.97070  0.92950  0.42144  1.0000    0.94503445330676605  
  H   H84       1.0  0.91494  0.85631  0.37400  1.0000    0.93733940680120087  
  H   H85       1.0  0.87274  0.95031  0.39218  1.0000    0.93245141542076915  
  N   N34       1.0  0.91481  0.81843  0.53329  1.0000     1.3397511932205899  
  C   C79       1.0  0.88189  0.12166  0.50469  1.0000     1.0560391345283877  
  C   C80       1.0  0.81151  0.13269  0.40015  1.0000     1.0586297962671101  
  H   H86       1.0  0.76626  0.11935  0.35824  1.0000    0.97308291769856703  
  C   C81       1.0  0.91456  0.09121  0.57989  1.0000     1.0314746866387827  
  N   N35       1.0  0.82074  0.08941  0.46742  1.0000     1.3416782931933129  
  C   C82       1.0  0.12182  0.12496  0.49243  1.0000     1.0562144114652512  
  C   C83       1.0  0.12647  0.18702  0.60257  1.0000     1.0589832045236574  
  H   H87       1.0  0.11076  0.22904  0.64696  1.0000    0.97277820689562033  
  C   C84       1.0  0.09562  0.09850  0.41331  1.0000     1.0313545465235536  
  H   H88       1.0  0.04360  0.06130  0.41875  1.0000    0.94550936229114269  
  H   H89       1.0  0.08004  0.14877  0.37682  1.0000    0.93447879034040648  
  H   H90       1.0  0.14195  0.06463  0.38495  1.0000    0.93350103291717612  
  N   N36       1.0  0.08791  0.18373  0.53201  1.0000     1.3397223557404041  
  C   C85       1.0  0.18290  0.13022  0.60307  1.0000     1.0583667216037826  
  H   H91       1.0  0.22426  0.11452  0.64807  1.0000    0.97415479019479667  
  N   N37       1.0  0.18002  0.09100  0.53282  1.0000     1.3404910341025169  
  C   C86       1.0  0.12702  0.81934  0.39698  1.0000     1.0592846131220963  
  H   H92       1.0  0.11118  0.77842  0.35163  1.0000    0.97190777206098067  
  H   H93       1.0  0.03895  0.92895  0.58619  1.0000    0.94423419020947530  
  H   H94       1.0  0.09401  0.85189  0.62787  1.0000    0.93626119697373711  
  H   H95       1.0  0.13840  0.94546  0.61288  1.0000    0.93275931154991498  
  N   N38       1.0  0.08954  0.82004  0.46820  1.0000     1.3397517813554987  
  C   C87       1.0  0.81656  0.87051  0.60092  1.0000     1.0586419261568154  
  H   H96       1.0  0.77297  0.88521  0.64412  1.0000    0.97278477343803071  
  N   N39       1.0  0.82251  0.91095  0.53154  1.0000     1.3419798978442210  
  C   C88       1.0  0.86741  0.19001  0.39922  1.0000     1.0592876672359759  
  H   H97       1.0  0.87887  0.23485  0.35632  1.0000    0.97155388550086863  
  H   H98       1.0  0.96738  0.05658  0.56846  1.0000    0.94644520528300824  
  H   H99       1.0  0.93079  0.13962  0.61856  1.0000    0.93467406079869020  
  H   H100      1.0  0.87149  0.05379  0.60894  1.0000    0.93323708558353557  
  N   N40       1.0  0.91193  0.18302  0.46590  1.0000     1.3389849925617849  
  C   C89       1.0  0.40104  0.18391  0.86846  1.0000     1.0587104508663485  
  H   H101      1.0  0.35660  0.22658  0.88218  1.0000    0.97408193702781876  
  H   H102      1.0  0.58122  0.07231  0.96941  1.0000    0.94221610999886851  
  H   H103      1.0  0.62990  0.13936  0.90739  1.0000    0.93744977627057124  
  H   H104      1.0  0.60798  0.04328  0.87267  1.0000    0.93325014377910931  
  N   N41       1.0  0.46925  0.17883  0.91090  1.0000     1.3403085041267371  
  C   C90       1.0  0.39917  0.81270  0.13565  1.0000     1.0587510803497227  
  H   H105      1.0  0.35536  0.76889  0.12362  1.0000    0.97358371647723430  
  H   H106      1.0  0.57163  0.93612  0.03199  1.0000    0.94368350747831142  
  H   H107      1.0  0.62256  0.86033  0.08081  1.0000    0.93631393167706911  
  H   H108      1.0  0.60704  0.95199  0.12885  1.0000    0.93311016327607021  
  N   N42       1.0  0.46583  0.81922  0.09097  1.0000     1.3404621679187632  
  C   C91       1.0  0.80704  0.59848  0.86772  1.0000     1.0588842823927629  
  H   H109      1.0  0.76191  0.64071  0.88041  1.0000    0.97201448842813154  
  N   N43       1.0  0.81559  0.53144  0.91150  1.0000     1.3406794112654079  
  C   C92       1.0  0.60094  0.18628  0.13065  1.0000     1.0587032905528411  
  H   H110      1.0  0.64477  0.22908  0.11556  1.0000    0.97279693433129355  
  H   H111      1.0  0.42397  0.03359  0.06554  1.0000    0.94324838791191956  
  H   H112      1.0  0.39076  0.13160  0.05255  1.0000    0.93231319097464804  
  H   H113      1.0  0.37582  0.08192  0.14351  1.0000    0.93626978325476762  
  N   N44       1.0  0.53236  0.17952  0.08898  1.0000     1.3418015457560017  
  C   C93       1.0  0.18822  0.40053  0.86366  1.0000     1.0592385348396185  
  H   H114      1.0  0.23369  0.35825  0.87496  1.0000    0.97199374909596914  
  H   H115      1.0  0.05533  0.57058  0.96324  1.0000    0.94886218487898577  
  H   H116      1.0  0.13771  0.62038  0.92485  1.0000    0.93581642985460523  
  H   H117      1.0  0.05109  0.60966  0.86686  1.0000    0.93249713365764797  
  N   N45       1.0  0.18140  0.46770  0.90750  1.0000     1.3406267970922756  
  C   C94       1.0  0.59967  0.81192  0.87225  1.0000     1.0584949095649816  
  H   H118      1.0  0.64334  0.76931  0.88833  1.0000    0.97357656614923149  
  N   N46       1.0  0.53039  0.81879  0.91270  1.0000     1.3417483465416484  
  C   C95       1.0  0.81269  0.40005  0.12969  1.0000     1.0589887525879584  
  H   H119      1.0  0.76935  0.35645  0.11543  1.0000    0.97167505517348063  
  N   N47       1.0  0.81664  0.47005  0.09012  1.0000     1.3419823066588812  
  C   C96       1.0  0.18618  0.59931  0.12552  1.0000     1.0587271574726214  
  H   H120      1.0  0.22971  0.64238  0.11027  1.0000    0.97201459986202110  
  N   N48       1.0  0.18014  0.52959  0.08569  1.0000     1.3420883303968731  
