data_image0
_chemical_formula_structural       C2HCNZnC2HCNZnC2HCH3NC2HCH3NC2HCNZnC2HCNZnC2HCH3NC2HCH3NC2HCNZnC2HCH3NZnC2HCNZnC2HCH3NZnCHNCH4NCHNCH4NCH4NZnCHNZnCH4NZnCH4NCHNZnCHNCH4NCHNC2HCH3NC2HCNC2HCH3NC2HCH3NC2HCH3NC2HCNC2HCNC2HCNC2HCNC2HCH3NC2HCNC2HCH3NCHNCH4NCHNCH4NCH4NCH4NCHNCH4NCH4NCHNCHNCHNC6NC2H6OSO3KC6NC2H6OSO3KC6NC2H6OSO3KC6NC2H6OSO3K
_chemical_formula_sum              "C128 H144 N52 Zn12 O16 S4 K4"
_cell_length_a       16.991
_cell_length_b       16.991
_cell_length_c       16.991
_cell_angle_alpha    90
_cell_angle_beta     90
_cell_angle_gamma    90

_space_group_name_H-M_alt    "P 1"
_space_group_IT_number       1

loop_
  _space_group_symop_operation_xyz
  'x, y, z'

loop_
  _atom_site_type_symbol
  _atom_site_label
  _atom_site_symmetry_multiplicity
  _atom_site_fract_x
  _atom_site_fract_y
  _atom_site_fract_z
  _atom_site_occupancy
  C   C1        1.0  0.90164  0.49096  0.11012  1.0000
  C   C2        1.0  0.90229  0.37911  0.16972  1.0000
  H   H1        1.0  0.92134  0.33400  0.20955  1.0000
  C   C3        1.0  0.92286  0.57203  0.08517  1.0000
  N   N1        1.0  0.93879  0.45094  0.16672  1.0000
  Zn  Zn1       1.0  0.02874  0.48254  0.23441  1.0000
  C   C4        1.0  0.53045  0.10126  0.86528  1.0000
  C   C5        1.0  0.41675  0.10018  0.80966  1.0000
  H   H2        1.0  0.37078  0.08209  0.77031  1.0000
  C   C6        1.0  0.61188  0.07896  0.88813  1.0000
  N   N2        1.0  0.48947  0.06540  0.80845  1.0000
  Zn  Zn2       1.0  0.52195  0.97901  0.73603  1.0000
  C   C7        1.0  0.14676  0.47809  0.10448  1.0000
  C   C8        1.0  0.16753  0.57705  0.18045  1.0000
  H   H3        1.0  0.15886  0.61701  0.22867  1.0000
  C   C9        1.0  0.11052  0.40668  0.06942  1.0000
  H   H4        1.0  0.06416  0.42365  0.02843  1.0000
  H   H5        1.0  0.08458  0.37025  0.11527  1.0000
  H   H6        1.0  0.15445  0.37283  0.03736  1.0000
  N   N3        1.0  0.11892  0.51418  0.16836  1.0000
  C   C10       1.0  0.51387  0.85895  0.86532  1.0000
  C   C11       1.0  0.62463  0.85250  0.80463  1.0000
  H   H7        1.0  0.66973  0.86781  0.76325  1.0000
  C   C12       1.0  0.43483  0.88699  0.89051  1.0000
  H   H8        1.0  0.44070  0.94228  0.92278  1.0000
  H   H9        1.0  0.39741  0.89786  0.83958  1.0000
  H   H10       1.0  0.40764  0.84330  0.92880  1.0000
  N   N4        1.0  0.55423  0.89134  0.80626  1.0000
  C   C13       1.0  0.90635  0.46950  0.86836  1.0000
  C   C14       1.0  0.90449  0.58043  0.80740  1.0000
  H   H11       1.0  0.92193  0.62520  0.76640  1.0000
  C   C15       1.0  0.93032  0.38962  0.89487  1.0000
  N   N5        1.0  0.94222  0.50927  0.81071  1.0000
  Zn  Zn3       1.0  0.02868  0.48074  0.73769  1.0000
  C   C16       1.0  0.51286  0.09980  0.11076  1.0000
  C   C17       1.0  0.62225  0.10642  0.17425  1.0000
  H   H12       1.0  0.66609  0.09190  0.21726  1.0000
  C   C18       1.0  0.43433  0.07244  0.08333  1.0000
  N   N6        1.0  0.55224  0.06680  0.17024  1.0000
  Zn  Zn4       1.0  0.52069  0.97899  0.23967  1.0000
  C   C19       1.0  0.15101  0.48554  0.86287  1.0000
  C   C20       1.0  0.16650  0.38217  0.79096  1.0000
  H   H13       1.0  0.15318  0.33848  0.74693  1.0000
  C   C21       1.0  0.11743  0.55927  0.89577  1.0000
  H   H14       1.0  0.07091  0.54569  0.93782  1.0000
  H   H15       1.0  0.09158  0.59528  0.84952  1.0000
  H   H16       1.0  0.16123  0.59353  0.92759  1.0000
  N   N7        1.0  0.12194  0.44880  0.79966  1.0000
  C   C22       1.0  0.53008  0.85714  0.10861  1.0000
  C   C23       1.0  0.43079  0.83910  0.18496  1.0000
  H   H17       1.0  0.38967  0.84957  0.23172  1.0000
  C   C24       1.0  0.60218  0.89133  0.07316  1.0000
  H   H18       1.0  0.58752  0.92319  0.01943  1.0000
  H   H19       1.0  0.62948  0.93174  0.11457  1.0000
  H   H20       1.0  0.64315  0.84452  0.05786  1.0000
  N   N8        1.0  0.49368  0.88713  0.17138  1.0000
  C   C25       1.0  0.14496  0.85938  0.49262  1.0000
  C   C26       1.0  0.20680  0.85591  0.38218  1.0000
  H   H21       1.0  0.24689  0.87372  0.33673  1.0000
  C   C27       1.0  0.11686  0.88576  0.57119  1.0000
  N   N9        1.0  0.20313  0.89410  0.45288  1.0000
  Zn  Zn5       1.0  0.27036  0.98125  0.48542  1.0000
  C   C28       1.0  0.90636  0.85848  0.47809  1.0000
  C   C29       1.0  0.89542  0.79047  0.58430  1.0000
  H   H22       1.0  0.90862  0.74612  0.62724  1.0000
  C   C30       1.0  0.93568  0.88922  0.40148  1.0000
  H   H23       1.0  0.99583  0.91045  0.40740  1.0000
  H   H24       1.0  0.93607  0.84330  0.35632  1.0000
  H   H25       1.0  0.89844  0.93759  0.38215  1.0000
  N   N10       1.0  0.93833  0.79774  0.51655  1.0000
  Zn  Zn6       1.0  0.02992  0.72913  0.48596  1.0000
  C   C31       1.0  0.90137  0.10274  0.49541  1.0000
  C   C32       1.0  0.83341  0.11396  0.38925  1.0000
  H   H26       1.0  0.78949  0.10037  0.34604  1.0000
  C   C33       1.0  0.93237  0.07195  0.57116  1.0000
  N   N11       1.0  0.84110  0.07049  0.45666  1.0000
  Zn  Zn7       1.0  0.77577  0.97867  0.48609  1.0000
  C   C34       1.0  0.14330  0.10365  0.48035  1.0000
  C   C35       1.0  0.15127  0.16677  0.59010  1.0000
  H   H27       1.0  0.13657  0.20879  0.63512  1.0000
  C   C36       1.0  0.11392  0.07696  0.40249  1.0000
  H   H28       1.0  0.07647  0.02523  0.40936  1.0000
  H   H29       1.0  0.07907  0.12338  0.37529  1.0000
  H   H30       1.0  0.16108  0.06061  0.36209  1.0000
  N   N12       1.0  0.11080  0.16299  0.52057  1.0000
  Zn  Zn8       1.0  0.02252  0.23169  0.48671  1.0000
  C   C37       1.0  0.20730  0.10953  0.58967  1.0000
  H   H31       1.0  0.24942  0.09356  0.63396  1.0000
  N   N13       1.0  0.20230  0.06967  0.51986  1.0000
  C   C38       1.0  0.15080  0.79857  0.38166  1.0000
  H   H32       1.0  0.13711  0.75525  0.33748  1.0000
  H   H33       1.0  0.06703  0.92570  0.56451  1.0000
  H   H34       1.0  0.09727  0.83574  0.60604  1.0000
  H   H35       1.0  0.16315  0.91697  0.60254  1.0000
  N   N14       1.0  0.11153  0.80126  0.45182  1.0000
  C   C39       1.0  0.83854  0.84687  0.58439  1.0000
  H   H36       1.0  0.79397  0.85974  0.62718  1.0000
  N   N15       1.0  0.84549  0.88990  0.51672  1.0000
  C   C40       1.0  0.88906  0.17151  0.38988  1.0000
  H   H37       1.0  0.90147  0.21663  0.34758  1.0000
  H   H38       1.0  0.98442  0.03598  0.56026  1.0000
  H   H39       1.0  0.94934  0.12014  0.60978  1.0000
  H   H40       1.0  0.88816  0.03572  0.60003  1.0000
  N   N16       1.0  0.93194  0.16440  0.45759  1.0000
  C   C41       1.0  0.41662  0.15625  0.86690  1.0000
  H   H41       1.0  0.37047  0.19510  0.88555  1.0000
  H   H42       1.0  0.61123  0.05063  0.94571  1.0000
  H   H43       1.0  0.64916  0.13087  0.89248  1.0000
  H   H44       1.0  0.63636  0.03819  0.84525  1.0000
  N   N17       1.0  0.48899  0.15691  0.90194  1.0000
  Zn  Zn9       1.0  0.52166  0.22973  0.98877  1.0000
  C   C42       1.0  0.43165  0.78086  0.12977  1.0000
  H   H45       1.0  0.39243  0.73135  0.12314  1.0000
  N   N18       1.0  0.49471  0.79262  0.08088  1.0000
  Zn  Zn10      1.0  0.52346  0.72752  0.98634  1.0000
  C   C43       1.0  0.84673  0.58096  0.86281  1.0000
  H   H46       1.0  0.80570  0.62634  0.87818  1.0000
  H   H47       1.0  0.94529  0.39067  0.95722  1.0000
  H   H48       1.0  0.88248  0.34761  0.88735  1.0000
  H   H49       1.0  0.98129  0.36986  0.86152  1.0000
  N   N19       1.0  0.84775  0.51023  0.90116  1.0000
  Zn  Zn11      1.0  0.77417  0.47925  0.98752  1.0000
  C   C44       1.0  0.62285  0.16219  0.11680  1.0000
  H   H50       1.0  0.66773  0.20364  0.10102  1.0000
  H   H51       1.0  0.44132  0.02302  0.04274  1.0000
  H   H52       1.0  0.40473  0.12006  0.05238  1.0000
  H   H53       1.0  0.39801  0.05269  0.13228  1.0000
  N   N20       1.0  0.55318  0.15806  0.07668  1.0000
  C   C45       1.0  0.22154  0.38098  0.84932  1.0000
  H   H54       1.0  0.26527  0.33749  0.86308  1.0000
  N   N21       1.0  0.21182  0.44693  0.89435  1.0000
  Zn  Zn12      1.0  0.27575  0.47986  0.98606  1.0000
  C   C46       1.0  0.62449  0.79746  0.86280  1.0000
  H   H55       1.0  0.66949  0.75678  0.88020  1.0000
  N   N22       1.0  0.55380  0.80146  0.90120  1.0000
  C   C47       1.0  0.84378  0.37824  0.11511  1.0000
  H   H56       1.0  0.80293  0.33262  0.09983  1.0000
  H   H57       1.0  0.92707  0.57495  0.02136  1.0000
  H   H58       1.0  0.87828  0.61444  0.10345  1.0000
  H   H59       1.0  0.97944  0.58961  0.10940  1.0000
  N   N23       1.0  0.84329  0.44942  0.07746  1.0000
  C   C48       1.0  0.22396  0.57625  0.12371  1.0000
  H   H60       1.0  0.27256  0.61557  0.11425  1.0000
  N   N24       1.0  0.21089  0.51303  0.07564  1.0000
  C   C49       1.0  0.39817  0.98690  0.61102  1.0000
  C   C50       1.0  0.39602  0.87377  0.66772  1.0000
  H   H61       1.0  0.41271  0.82704  0.70743  1.0000
  C   C51       1.0  0.42351  0.06736  0.58783  1.0000
  H   H62       1.0  0.47695  0.06398  0.55249  1.0000
  H   H63       1.0  0.43638  0.10284  0.63961  1.0000
  H   H64       1.0  0.37786  0.09536  0.55281  1.0000
  N   N25       1.0  0.43365  0.94504  0.66741  1.0000
  C   C52       1.0  0.03536  0.60083  0.36711  1.0000
  C   C53       1.0  0.93063  0.61282  0.29683  1.0000
  H   H65       1.0  0.88789  0.59894  0.25251  1.0000
  C   C54       1.0  0.11029  0.56979  0.39981  1.0000
  N   N26       1.0  0.99809  0.56987  0.30522  1.0000
  C   C55       1.0  0.64453  0.96885  0.60791  1.0000
  C   C56       1.0  0.65221  0.07799  0.67185  1.0000
  H   H66       1.0  0.63723  0.12242  0.71409  1.0000
  C   C57       1.0  0.61744  0.89007  0.58094  1.0000
  H   H67       1.0  0.55430  0.89086  0.56963  1.0000
  H   H68       1.0  0.62862  0.84534  0.62565  1.0000
  H   H69       1.0  0.64857  0.87408  0.52730  1.0000
  N   N27       1.0  0.61078  0.00906  0.66659  1.0000
  C   C58       1.0  0.01659  0.36063  0.36395  1.0000
  C   C59       1.0  0.12562  0.34984  0.30056  1.0000
  H   H70       1.0  0.17010  0.36243  0.25756  1.0000
  C   C60       1.0  0.93858  0.39009  0.39059  1.0000
  H   H71       1.0  0.94391  0.45018  0.41244  1.0000
  H   H72       1.0  0.89681  0.39084  0.34201  1.0000
  H   H73       1.0  0.91588  0.35268  0.43737  1.0000
  N   N28       1.0  0.05690  0.39175  0.30401  1.0000
  C   C61       1.0  0.40214  0.97208  0.37027  1.0000
  C   C62       1.0  0.39509  0.07986  0.30421  1.0000
  H   H74       1.0  0.40893  0.12282  0.26012  1.0000
  C   C63       1.0  0.43016  0.89462  0.40024  1.0000
  H   H75       1.0  0.46663  0.90299  0.45254  1.0000
  H   H76       1.0  0.46562  0.86528  0.35569  1.0000
  H   H77       1.0  0.38086  0.85694  0.41656  1.0000
  N   N29       1.0  0.43470  0.00982  0.30943  1.0000
  C   C64       1.0  0.02124  0.60168  0.61015  1.0000
  C   C65       1.0  0.12538  0.61683  0.68038  1.0000
  H   H78       1.0  0.16637  0.60805  0.72781  1.0000
  C   C66       1.0  0.94569  0.56945  0.58009  1.0000
  N   N30       1.0  0.05862  0.57226  0.67277  1.0000
  C   C67       1.0  0.64544  0.98629  0.36614  1.0000
  C   C68       1.0  0.65887  0.88288  0.29448  1.0000
  H   H79       1.0  0.64660  0.84103  0.24880  1.0000
  C   C69       1.0  0.61390  0.06088  0.39919  1.0000
  N   N31       1.0  0.61376  0.94880  0.30475  1.0000
  C   C70       1.0  0.03067  0.35944  0.60755  1.0000
  C   C71       1.0  0.92827  0.34881  0.68115  1.0000
  H   H80       1.0  0.88781  0.36222  0.72767  1.0000
  C   C72       1.0  0.10504  0.38897  0.57224  1.0000
  N   N32       1.0  0.99575  0.39151  0.67033  1.0000
  C   C73       1.0  0.64498  0.35725  0.99731  1.0000
  C   C74       1.0  0.70261  0.35560  0.88473  1.0000
  H   H81       1.0  0.74265  0.37277  0.83910  1.0000
  C   C75       1.0  0.62132  0.38114  0.07809  1.0000
  N   N33       1.0  0.70269  0.39171  0.95668  1.0000
  C   C76       1.0  0.39907  0.35408  0.98082  1.0000
  C   C77       1.0  0.38893  0.29087  0.09016  1.0000
  H   H82       1.0  0.40172  0.24790  0.13453  1.0000
  C   C78       1.0  0.42629  0.37876  0.90170  1.0000
  H   H83       1.0  0.48896  0.39189  0.90127  1.0000
  H   H84       1.0  0.41679  0.33266  0.85811  1.0000
  H   H85       1.0  0.39515  0.43139  0.88264  1.0000
  N   N34       1.0  0.43054  0.29452  0.02128  1.0000
  C   C79       1.0  0.40492  0.59928  0.98919  1.0000
  C   C80       1.0  0.33028  0.61616  0.88869  1.0000
  H   H86       1.0  0.28320  0.60532  0.84804  1.0000
  C   C81       1.0  0.44143  0.56318  0.05988  1.0000
  N   N35       1.0  0.34252  0.56900  0.95254  1.0000
  C   C82       1.0  0.64847  0.60288  0.97716  1.0000
  C   C83       1.0  0.64578  0.65987  0.09058  1.0000
  H   H87       1.0  0.62716  0.70010  0.13566  1.0000
  C   C84       1.0  0.62910  0.58062  0.89499  1.0000
  H   H88       1.0  0.58443  0.53462  0.89253  1.0000
  H   H89       1.0  0.60640  0.63045  0.86175  1.0000
  H   H90       1.0  0.68099  0.55749  0.86550  1.0000
  N   N36       1.0  0.61168  0.65981  0.01742  1.0000
  C   C85       1.0  0.70234  0.60328  0.09187  1.0000
  H   H91       1.0  0.74105  0.58561  0.13851  1.0000
  N   N37       1.0  0.70413  0.56757  0.01978  1.0000
  C   C86       1.0  0.64535  0.29971  0.88464  1.0000
  H   H92       1.0  0.62685  0.26064  0.83871  1.0000
  H   H93       1.0  0.56547  0.41263  0.07572  1.0000
  H   H94       1.0  0.61326  0.33005  0.11589  1.0000
  H   H95       1.0  0.66567  0.41980  0.10329  1.0000
  N   N38       1.0  0.60916  0.30025  0.95661  1.0000
  C   C87       1.0  0.33348  0.34861  0.08920  1.0000
  H   H96       1.0  0.29023  0.36395  0.13259  1.0000
  N   N39       1.0  0.34007  0.38885  0.01958  1.0000
  C   C88       1.0  0.38568  0.67396  0.88889  1.0000
  H   H97       1.0  0.39599  0.72058  0.84729  1.0000
  H   H98       1.0  0.48717  0.52201  0.04139  1.0000
  H   H99       1.0  0.46879  0.60798  0.09660  1.0000
  H   H100      1.0  0.39747  0.53085  0.09345  1.0000
  N   N40       1.0  0.43288  0.66345  0.95347  1.0000
  C   C89       1.0  0.92929  0.66895  0.35402  1.0000
  H   H101      1.0  0.88443  0.71105  0.36872  1.0000
  H   H102      1.0  0.09938  0.53999  0.45559  1.0000
  H   H103      1.0  0.15256  0.61651  0.41225  1.0000
  H   H104      1.0  0.13648  0.52781  0.35916  1.0000
  N   N41       1.0  0.99594  0.66114  0.39856  1.0000
  C   C90       1.0  0.92498  0.29215  0.62463  1.0000
  H   H105      1.0  0.88084  0.24843  0.61375  1.0000
  H   H106      1.0  0.09565  0.40295  0.51044  1.0000
  H   H107      1.0  0.15164  0.34474  0.57495  1.0000
  H   H108      1.0  0.12393  0.44221  0.60234  1.0000
  N   N42       1.0  0.99027  0.29889  0.57806  1.0000
  C   C91       1.0  0.34013  0.08211  0.36224  1.0000
  H   H109      1.0  0.29842  0.12715  0.37659  1.0000
  N   N43       1.0  0.34493  0.01372  0.40418  1.0000
  C   C92       1.0  0.12587  0.67181  0.62214  1.0000
  H   H110      1.0  0.16962  0.71498  0.60800  1.0000
  H   H111      1.0  0.95536  0.51222  0.55276  1.0000
  H   H112      1.0  0.92081  0.60927  0.53655  1.0000
  H   H113      1.0  0.90405  0.56138  0.62816  1.0000
  N   N44       1.0  0.05920  0.66254  0.57808  1.0000
  C   C93       1.0  0.71663  0.88288  0.35001  1.0000
  H   H114      1.0  0.76298  0.84122  0.36056  1.0000
  H   H115      1.0  0.58081  0.04878  0.45282  1.0000
  H   H116      1.0  0.66159  0.10099  0.41403  1.0000
  H   H117      1.0  0.57472  0.08866  0.35685  1.0000
  N   N45       1.0  0.70792  0.94873  0.39549  1.0000
  C   C94       1.0  0.12445  0.29450  0.35844  1.0000
  H   H118      1.0  0.16756  0.25102  0.37378  1.0000
  N   N46       1.0  0.05491  0.30132  0.39854  1.0000
  C   C95       1.0  0.33854  0.87532  0.61176  1.0000
  H   H119      1.0  0.29775  0.83021  0.59474  1.0000
  N   N47       1.0  0.33987  0.94746  0.57621  1.0000
  C   C96       1.0  0.70990  0.07692  0.61635  1.0000
  H   H120      1.0  0.75384  0.12010  0.60275  1.0000
  N   N48       1.0  0.70495  0.00750  0.57585  1.0000
  C   C97       1.0  0.41472  0.45140  0.29761  1.0000
  C   C98       1.0  0.45463  0.39891  0.25053  1.0000
  C   C99       1.0  0.48798  0.33042  0.28177  1.0000
  C   C100      1.0  0.48333  0.31300  0.36075  1.0000
  C   C101      1.0  0.44454  0.36645  0.40910  1.0000
  C   C102      1.0  0.40958  0.43571  0.37817  1.0000
  N   N49       1.0  0.43210  0.36572  0.48826  1.0000
  C   C103      1.0  0.39258  0.43318  0.50960  1.0000
  C   C104      1.0  0.37650  0.47690  0.44409  1.0000
  H   H121      1.0  0.38798  0.50403  0.27383  1.0000
  H   H122      1.0  0.45988  0.41018  0.18818  1.0000
  H   H123      1.0  0.51803  0.29053  0.24270  1.0000
  H   H124      1.0  0.50948  0.26034  0.38460  1.0000
  H   H125      1.0  0.45644  0.32797  0.52692  1.0000
  H   H126      1.0  0.38098  0.44669  0.57008  1.0000
  O   O1        1.0  0.33753  0.54731  0.43742  1.0000
  S   S1        1.0  0.30624  0.59397  0.51485  1.0000
  O   O2        1.0  0.26113  0.65733  0.48292  1.0000
  O   O3        1.0  0.37630  0.61939  0.55734  1.0000
  O   O4        1.0  0.26032  0.53780  0.56043  1.0000
  K   K1        1.0  0.26277  0.47318  0.66533  1.0000
  C   C105      1.0  0.66194  0.31712  0.55100  1.0000
  C   C106      1.0  0.69812  0.27951  0.48898  1.0000
  C   C107      1.0  0.69578  0.31103  0.41302  1.0000
  C   C108      1.0  0.65730  0.38065  0.39732  1.0000
  C   C109      1.0  0.62014  0.41903  0.45945  1.0000
  C   C110      1.0  0.62217  0.38766  0.53678  1.0000
  N   N50       1.0  0.57853  0.48763  0.46191  1.0000
  C   C111      1.0  0.55208  0.50025  0.53760  1.0000
  C   C112      1.0  0.57798  0.44110  0.58532  1.0000
  H   H127      1.0  0.66364  0.29343  0.60989  1.0000
  H   H128      1.0  0.72924  0.22484  0.49856  1.0000
  H   H129      1.0  0.72492  0.27997  0.36593  1.0000
  H   H130      1.0  0.65578  0.40404  0.33836  1.0000
  H   H131      1.0  0.56063  0.51939  0.41519  1.0000
  H   H132      1.0  0.51559  0.54986  0.55150  1.0000
  O   O5        1.0  0.56605  0.42902  0.66405  1.0000
  S   S2        1.0  0.51742  0.48863  0.72093  1.0000
  O   O6        1.0  0.53581  0.45993  0.79788  1.0000
  O   O7        1.0  0.43434  0.48113  0.69932  1.0000
  O   O8        1.0  0.54575  0.56834  0.70567  1.0000
  K   K2        1.0  0.45484  0.63664  0.64989  1.0000
  C   C113      1.0  0.03018  0.89263  0.80138  1.0000
  C   C114      1.0  0.02571  0.94630  0.74088  1.0000
  C   C115      1.0  0.07583  0.01141  0.73705  1.0000
  C   C116      1.0  0.13155  0.02482  0.79431  1.0000
  C   C117      1.0  0.13624  0.97134  0.85599  1.0000
  C   C118      1.0  0.08618  0.90449  0.86026  1.0000
  N   N51       1.0  0.18416  0.97052  0.92023  1.0000
  C   C119      1.0  0.16423  0.90785  0.96733  1.0000
  C   C120      1.0  0.10597  0.86507  0.93217  1.0000
  H   H133      1.0  0.99120  0.84258  0.80409  1.0000
  H   H134      1.0  0.98247  0.93787  0.69521  1.0000
  H   H135      1.0  0.07063  0.05197  0.68860  1.0000
  H   H136      1.0  0.16959  0.07573  0.79282  1.0000
  H   H137      1.0  0.21951  0.01473  0.93776  1.0000
  H   H138      1.0  0.18811  0.90190  0.02534  1.0000
  O   O9        1.0  0.07020  0.79767  0.95914  1.0000
  S   S3        1.0  0.11176  0.75004  0.03102  1.0000
  O   O10       1.0  0.06356  0.68160  0.04000  1.0000
  O   O11       1.0  0.10799  0.80041  0.09984  1.0000
  O   O12       1.0  0.19193  0.73375  0.00528  1.0000
  K   K3        1.0  0.29064  0.79453  0.05460  1.0000
  C   C121      1.0  0.10542  0.16953  0.98419  1.0000
  C   C122      1.0  0.07826  0.20955  0.91905  1.0000
  C   C123      1.0  0.01702  0.17950  0.87295  1.0000
  C   C124      1.0  0.98080  0.10942  0.89161  1.0000
  C   C125      1.0  0.00759  0.06888  0.95748  1.0000
  C   C126      1.0  0.07076  0.09763  0.00399  1.0000
  N   N52       1.0  0.98316  0.99965  0.98933  1.0000
  C   C127      1.0  0.03019  0.98139  0.05267  1.0000
  C   C128      1.0  0.08435  0.03950  0.06396  1.0000
  H   H139      1.0  0.15246  0.19305  0.01987  1.0000
  H   H140      1.0  0.10467  0.26526  0.90279  1.0000
  H   H141      1.0  0.99792  0.21211  0.82187  1.0000
  H   H142      1.0  0.93381  0.08604  0.85581  1.0000
  H   H143      1.0  0.94272  0.96300  0.96644  1.0000
  H   H144      1.0  0.02363  0.92713  0.08382  1.0000
  O   O13       1.0  0.14301  0.04521  0.11848  1.0000
  S   S4        1.0  0.16128  0.97743  0.18505  1.0000
  O   O14       1.0  0.20176  0.02096  0.24491  1.0000
  O   O15       1.0  0.21130  0.91954  0.14643  1.0000
  O   O16       1.0  0.08568  0.94616  0.21009  1.0000
  K   K4        1.0  0.05065  0.82585  0.20531  1.0000
